    80
config_type=liqu Lattice="   13.07380   0.00000   0.00000   0.00000  13.07380   0.00000   0.00000   0.00000  13.07380"    Properties=species:S:1:pos:R:3:forces:R:3 energy=  -393.2500 pbc="T T T"
Ge   10.16973   0.07879  12.65774  -0.01049   0.00120  -0.02225
Ge    0.86915  11.70619  -1.72731   0.00311  -0.02513  -0.01511
Ge   12.33842   1.76734  -0.95084  -0.02534   0.00724   0.00732
Ge    7.47815   9.07878   9.36831   0.00111   0.00183   0.01217
Ge    4.21025   5.55607   5.78008   0.00608   0.01143   0.00629
Ge   11.16959   2.56602   1.52786   0.00212   0.00882  -0.01541
Ge    8.26752   6.72596  14.11784   0.03367   0.00068  -0.02246
Sb    5.33174   7.45152  -1.67206  -0.00182  -0.01130   0.00766
Te    1.91329   4.50030  12.10144   0.00271  -0.01231  -0.00196
Te   11.37946  10.44242  11.22731  -0.01495   0.00496  -0.00481
Ge    3.42728  11.92305  10.12881   0.01557  -0.00861  -0.00369
Ge   12.12748   4.83498   6.96955   0.00807   0.00642   0.00150
Ge    4.19525   8.38020   4.82524  -0.06607  -0.03816   0.01705
Ge   11.24844  10.33943   7.81988   0.00187   0.00513   0.00956
Ge    9.16588  11.08203   5.70974  -0.00610  -0.00263  -0.01775
Ge   10.53081   5.65066   3.12098  -0.00406  -0.00225  -0.00640
Ge   13.01980   9.04678   2.30327  -0.00820  -0.00191  -0.00265
Sb    0.44772  12.22095  -4.70276  -0.00423   0.00384   0.00767
Te   11.90391  11.62266   5.24816  -0.00049   0.00463  -0.00521
Te    5.33806  13.23177  20.33094  -0.01263  -0.00212  -0.00067
Ge    9.02938   9.82195   3.01849   0.00613  -0.00192   0.00812
Ge    6.33472  10.10120   0.39736   0.02974  -0.00407   0.04775
Ge    2.00311   1.52770   6.80755   0.00186  -0.00475   0.00101
Ge    3.12824   9.01487  10.72424  -0.00993   0.00700   0.00300
Ge    7.31759  12.32715  11.40115   0.00557   0.00831   0.00507
Ge    0.91791  10.32185   6.55673   0.01891  -0.00681  -0.00968
Ge    5.39458   4.50608  11.01175  -0.01788  -0.00081  -0.00090
Sb    2.12362  11.33757  -9.29578   0.00357   0.00628   0.00752
Te    0.23964   7.31833  13.18315   0.00120   0.00651   0.00565
Te    8.36825   8.01345   6.50007   0.02145  -0.00976  -0.01325
Ge    9.45436   4.76214   6.77912  -0.00412  -0.00537  -0.00754
Ge    2.58802   6.36637  10.37318   0.01056   0.00525   0.00814
Ge    8.62895   3.10413   0.35343   0.01788   0.00696   0.01035
Ge   11.77747   7.70075   7.11290   0.00176  -0.00013   0.01818
Ge    1.51709   8.01763   5.29488  -0.00517   0.00650  -0.00524
Ge    5.54339   1.07818  16.19713  -0.00261   0.00684  -0.00424
Ge    6.35569   4.31582   0.88664  -0.00862  -0.00840  -0.00535
Sb    8.70368  11.68430  -4.82624   0.00057   0.00610   0.01136
Te    0.60329  17.70197  14.96921  -0.03632  -0.00225  -0.01090
Te    1.89498  14.07415  24.70662   0.00089   0.02130  -0.00268
Ge    4.99049   7.74013   6.98420  -0.02499  -0.00599   0.01211
Ge   10.11665   5.50485   9.11188  -0.00116   0.00030   0.01605
Ge    4.53308   2.08989   0.12516   0.00908   0.05177  -0.00264
Ge    7.61928   5.68450  11.48320   0.03083   0.00442   0.00463
Ge    7.14498   3.05630   8.93919   0.00626   0.00765   0.03165
Ge   11.18346   6.24511  11.78527  -0.01111  -0.01126   0.01534
Ge    5.50313  10.26895  11.38039  -0.01767   0.01110  -0.05585
Sb    7.11548   2.56685   6.46493  -0.00939   0.00981  -0.02293
Te    3.08117   4.92571  16.43835   0.01690   0.01708  -0.01032
Te    5.66075   9.77603  16.83209   0.05036   0.06502  -0.04032
Ge    0.16646  12.96046   2.06482   0.00359   0.00249   0.00667
Ge    6.88167   1.99143  11.86536   0.00604  -0.01063  -0.01212
Ge    8.53301   3.59658   3.44251  -0.00759   0.02068  -0.02462
Ge    9.27262   9.36613   0.14059  -0.04014  -0.01314  -0.00369
Ge    9.66258   2.11586  10.98224  -0.00117   0.00952   0.00304
Ge    9.58840   8.03643  10.97518  -0.00698   0.00365  -0.00680
Ge    3.35578   3.66659  35.15557   0.00417   0.00181   0.00443
Sb   11.45581   8.19843   4.51174  -0.01985  -0.00878  -0.02144
Te    0.77104  16.67468  17.94096  -0.02216  -0.01713   0.00397
Te    8.23603  13.36668  30.00246  -0.00528  -0.01273  -0.00565
Ge    4.01432  10.77377  20.49800  -0.01472   0.00157   0.00148
Ge    2.42551   2.26370   2.36144  -0.00140  -0.00871   0.00924
Ge   11.17028  10.53204  14.19613   0.02542  -0.02256   0.00529
Ge    3.18957   0.23845  13.91922  -0.02861  -0.03094   0.01316
Ge    5.59829   4.04614   3.40806   0.02524  -0.02131  -0.00335
Ge    9.75456   2.27324   5.04217   0.01883  -0.00900   0.02449
Ge    5.60334  12.93764  13.67261   0.02670  -0.01865   0.00177
Sb    6.69397   6.43346   8.31078   0.01504  -0.02828   0.03120
Te    2.14793   6.72484  20.79007  -0.00013   0.00374  -0.02356
Te    6.58188   6.84684  29.01260  -0.00951  -0.00200   0.02276
Ge   12.85478   6.12375  10.00573   0.00143  -0.00470  -0.01471
Ge    3.68518   0.82169   4.89408   0.00369  -0.01355  -0.01094
Ge   11.86173   1.52494  16.83549   0.01448   0.00101   0.00666
Ge    4.10016   3.22632  32.54932   0.00832  -0.02275   0.02101
Ge    4.56971   1.70328  -2.53754  -0.00060  -0.00938  -0.02013
Ge    6.42941   9.84810   7.07583   0.00561   0.02925  -0.00563
Ge   10.40642  12.60464  15.02301  -0.00330   0.02103   0.02990
Sb   10.15110  15.05591   8.12667  -0.00862  -0.00048  -0.01026
Te    1.59939  23.51425  13.76431   0.01662   0.01131  -0.00465
Te    0.24780  15.83758  34.62325  -0.00958   0.01020   0.01754